* Fast-Fast (FF) Corner Models
.model nmos_180n nmos (vto=0.35 kp=250e-6 gamma=0.5 lambda=0.05 tox=4e-9)
.model pmos_180n pmos (vto=-0.35 kp=100e-6 gamma=0.5 lambda=0.05 tox=4e-9)
