* Slow-Slow (SS) Corner Models
.model nmos_180n nmos (vto=0.45 kp=150e-6 gamma=0.5 lambda=0.05 tox=4e-9)
.model pmos_180n pmos (vto=-0.45 kp=60e-6 gamma=0.5 lambda=0.05 tox=4e-9)
