* Generic 180nm MOSFET Models

.model nmos_180n nmos (vto=0.4 kp=200e-6 gamma=0.5 lambda=0.05 tox=4e-9 cgso=0.5e-9 cgdo=0.5e-9)

.model pmos_180n pmos (vto=-0.4 kp=80e-6 gamma=0.5 lambda=0.05 tox=4e-9 cgso=0.5e-9 cgdo=0.5e-9)
